Paper_Nodos_Debiles/ieee13_full_out.txt
ANDES 1.9.3
Copyright (C) 2015-2022 Hantao Cui

ANDES comes with ABSOLUTELY NO WARRANTY
Case file: ieee13_full.xlsx
Report time: 12/28/2025 03:37:09 PM

Power flow converged in 3 iterations.
Flat-start: No

Statistics:
Buses                             13
Generators                        13
Committed Gens                    13
Loads                             13
Shunts                             0
Lines                             12
Transformers                       0
Areas                              0

EXTENDED SUMMARY:
                              P (pu)            Q (pu)

Generation                    1.5092           0.13441
Load                             1.5              0.15

BUS DATA:
                            Bus Name            Vm(pu)          Va(rad.)

1                                650                 1        7.8765e-16
2                                632              1.02         -0.047455
3                                633              1.02         -0.050417
4                                634              1.02         -0.052884
5                                645              1.02         -0.050416
6                                646              1.02         -0.050638
7                                671              1.02         -0.054397
8                                680              1.02          -0.05451
9                                684              1.02         -0.054661
10                               611              1.02         -0.054798
11                               652              1.02         -0.054798
12                               692              1.02         -0.054548
13                               675              1.02         -0.054741

LINE DATA:
                           Line Name     Fr. Bus (idx)      To Bus (idx)       P From (pu)       Q From (pu)         P To (pu)         Q To (pu)

1                                  1                 1                 2            1.4492          -0.73912           -1.4408           0.82156
2                                  2                 2                 3           0.24012          -0.02529          -0.24004          0.022726
3                                  3                 2                 5           0.24008         -0.025286             -0.24          0.022722
4                                  4                 5                 6              0.18         -0.022074             -0.18          0.013927
5                                  5                 3                 4           0.18004         -0.020236             -0.18          0.015768
6                                  6                 2                 7           0.90065         -0.088546          -0.90003          0.091521
7                                  7                 7                 8              0.18         -0.023721             -0.18          0.012279
8                                  8                 7                 9           0.42002         -0.047677             -0.42          0.036325
9                                  9                 7                12           0.24001         -0.029714             -0.24          0.018288
10                                10                 9                10              0.18         -0.025356             -0.18          0.010644
11                                11                 9                11              0.18         -0.025356             -0.18          0.010644
12                                12                12                13              0.18         -0.027808             -0.18         0.0081927

OTHER ALGEBRAIC VARIABLES:
                                    

q PV 2                       0.68843
q PV 3                       0.00849
q PV 4                      0.033768
q PV 5                      0.006648
q PV 6                      0.031927
q PV 7                      -0.00359
q PV 8                      0.030279
q PV 9                     -0.008387
q PV 10                     0.028644
q PV 11                     0.028644
q PV 12                     -0.00352
q PV 13                     0.026193
q Slack 1                   -0.73312
p Slack 1                     1.5092

